Version 4
SHEET 1 1972 1152
WIRE 160 -144 -48 -144
WIRE 288 -144 160 -144
WIRE 160 -96 160 -144
WIRE -304 -16 -304 -144
WIRE 288 -16 288 -144
WIRE 160 16 160 -32
WIRE 160 16 80 16
WIRE 160 64 160 16
WIRE 80 80 80 16
WIRE 80 208 80 144
WIRE 160 208 160 144
WIRE 160 208 80 208
WIRE 288 208 288 64
WIRE 288 208 160 208
WIRE -304 240 -304 64
WIRE 48 608 -320 608
WIRE 80 608 48 608
WIRE 304 608 160 608
WIRE 48 640 48 608
WIRE 160 688 112 688
WIRE 304 688 304 608
WIRE 304 688 240 688
WIRE 464 688 304 688
WIRE 592 688 528 688
WIRE 864 688 864 656
WIRE 864 688 592 688
WIRE 592 736 592 688
WIRE 48 768 48 736
WIRE 864 768 864 688
WIRE 592 832 592 800
WIRE 592 832 512 832
WIRE 592 848 592 832
WIRE 48 864 48 832
WIRE 48 864 -32 864
WIRE 512 864 512 832
WIRE 48 880 48 864
WIRE 48 992 48 960
WIRE 48 992 -304 992
WIRE 512 992 512 928
WIRE 512 992 48 992
WIRE 592 992 592 928
WIRE 592 992 512 992
WIRE 864 992 864 848
WIRE 864 992 592 992
WIRE -304 1024 -304 992
FLAG -304 240 0
FLAG 288 -144 V_coil
FLAG 80 16 V_cap
FLAG -304 -144 SC
FLAG -304 1024 0
FLAG 864 656 V_coil-1
FLAG 512 832 V_cap
FLAG -320 608 SC
FLAG -32 864 relay_open
SYMBOL ind 272 -32 R0
SYMATTR InstName L1
SYMATTR Value 0.5
SYMATTR SpiceLine Rser=925
SYMBOL cap 144 -96 R0
SYMATTR InstName C1
SYMATTR Value 270µ
SYMBOL res 144 48 R0
SYMATTR InstName R1
SYMATTR Value 1k
SYMBOL schottky 96 144 R180
WINDOW 0 24 64 Left 2
WINDOW 3 24 0 Left 2
SYMATTR InstName D1
SYMATTR Value 1N5819
SYMATTR Description Diode
SYMATTR Type diode
SYMBOL schottky -112 -128 R270
WINDOW 0 32 32 VTop 2
WINDOW 3 0 32 VBottom 2
SYMATTR InstName D2
SYMATTR Value 1N5819
SYMATTR Description Diode
SYMATTR Type diode
SYMBOL voltage -304 -32 R0
WINDOW 3 -398 34 Left 2
WINDOW 123 0 0 Left 0
WINDOW 39 -398 62 Left 2
SYMATTR Value PULSE(0 22 0.5 0.2 0.1 1.5)
SYMATTR SpiceLine Rser=1
SYMATTR InstName V1
SYMBOL ind 848 752 R0
SYMATTR InstName L4
SYMATTR Value 10m
SYMATTR SpiceLine Rser=925
SYMBOL cap 576 736 R0
WINDOW 3 69 64 Left 2
SYMATTR InstName C6
SYMATTR Value 270µ
SYMBOL res 576 832 R0
SYMATTR InstName R9
SYMATTR Value 5.1k
SYMBOL schottky 528 928 R180
WINDOW 0 24 64 Left 2
WINDOW 3 24 0 Left 2
SYMATTR InstName D8
SYMATTR Value 1N5819
SYMATTR Description Diode
SYMATTR Type diode
SYMBOL schottky 464 704 R270
WINDOW 0 32 32 VTop 2
WINDOW 3 0 32 VBottom 2
SYMATTR InstName D9
SYMATTR Value 1N5819
SYMATTR Description Diode
SYMATTR Type diode
SYMBOL pnp 112 736 R180
SYMATTR InstName Q4
SYMATTR Value BC857C
SYMBOL voltage 144 688 M90
WINDOW 123 0 0 Left 0
WINDOW 39 0 0 Left 0
SYMATTR InstName V4
SYMATTR Value SINE(0 0.2 70)
SYMBOL res 176 592 R90
WINDOW 0 0 56 VBottom 2
WINDOW 3 32 56 VTop 2
SYMATTR InstName R12
SYMATTR Value 51
SYMBOL res 32 864 R0
SYMATTR InstName R13
SYMATTR Value 20k
SYMBOL LED 32 768 R0
SYMATTR InstName D10
SYMATTR Value NSCW100
SYMATTR Description Diode
SYMATTR Type diode
TEXT 312 -40 Left 2 ;"Relay"
TEXT 408 8 Left 2 ;Must operate: 20 V (21.6 mA)\nMust release: 4 V\nSeries resistance: 925 Ohm\nCoil inductance: not specified
TEXT -704 264 Left 2 !.tran 3
TEXT 248 664 Right 2 ;Transistor\nuncertainty\nnoise
TEXT 768 816 Left 2 ;"Relay"
TEXT 488 600 Left 2 ;Delay circuit
TEXT 8 528 Left 2 ;Current sensing\ncircuit
TEXT 24 792 Right 2 ;Optional\nLED
